Network_data/Greensboro_GSO_urban_SH_BH/uhs15_1247/Master.dss
Clear

New Circuit.substation_uhs15_69 bus1=uhs15_69 pu=1.0 basekV=69.0 R1=1e-05 X1=1e-05 R0=1e-05 X0=1e-05

Redirect LineCodes.dss
Redirect uhs15_1247--udt19670/LineCodes.dss
Redirect uhs15_1247--udt20824/LineCodes.dss
Redirect Lines.dss
Redirect uhs15_1247--udt19670/Lines.dss
Redirect uhs15_1247--udt20824/Lines.dss
Redirect Transformers.dss
Redirect uhs15_1247--udt19670/Transformers.dss
Redirect uhs15_1247--udt20824/Transformers.dss
Redirect Regulators.dss
Redirect LoadShapes.dss
Redirect uhs15_1247--udt19670/Loads.dss
Redirect uhs15_1247--udt20824/Loads.dss
Redirect uhs15_1247--udt19670/Capacitors.dss
Redirect uhs15_1247--udt20824/Capacitors.dss
Redirect Storage.dss
Redirect uhs15_1247--udt19670/Storage.dss
Redirect uhs15_1247--udt20824/Storage.dss
Redirect uhs15_1247--udt19670/PVSystems.dss
Redirect uhs15_1247--udt20824/PVSystems.dss
new monitor.m1 element=Line.sb8_uhs15_1247_403 mode=0
new monitor.m2 element=Line.sb8_uhs15_1247_403 mode=1
new energymeter.m3 Line.sb8_uhs15_1247_403

Set Voltagebases=[0.12, 0.208, 0.24, 0.48, 7.2, 12.47, 69.0]

Calcvoltagebases

Buscoords Buscoords.dss
set maxcontroliter=50

Solve mode=yearly stepsize=15m number=35040
Export monitors m1
Plot monitor object= m1 channels=(7 9 11 )
Export monitors m2
Plot monitor object= m2 channels=(1 3 5 )
Plot Profile Phases=All
